version 2
1
9
.tran 1u 22m 20m{return}.kicad adjustpaths{return}.save all{return}.probe alli
1
1
V(/OUT)
 
